FoamFile
{
    version     2.0;
    format      ascii;
    class       dictionary;
    object      fvSolution;
}

solvers
{
    "(h|T)"
    {
        solver          PCG;
        preconditioner  DIC;
        tolerance       1e-7;
        relTol          0.1;
    }
}

SIMPLE
{
    nNonOrthogonalCorrectors 0;
}

relaxationFactors
{
    equations
    {
        "(h|T)"         0.7;
    }
}
