FoamFile
{
    version     2.0;
    format      ascii;
    class       volScalarField;
    location    "0/domain18";
    object      p;
}

dimensions      [1 -1 -2 0 0 0 0];
internalField   uniform 0;

boundaryField
{
    domain18_to_fluid
    {
        type            fixedValue;
        value           uniform 0;
    }
    defaultFaces
    {
        type            fixedValue;
        value           uniform 0;
    }
}
