FoamFile
{
    version     2.0;
    format      ascii;
    class       dictionary;
    location    "constant/domain4";
    object      turbulenceProperties;
}

simulationType  laminar;
