FoamFile
{
    version     2.0;
    format      ascii;
    class       dictionary;
    object      snappyHexMeshDict;
}

castellatedMesh true;
snap            true;
addLayers       false;

geometry
{
    finnedTube.stl
    {
        type triSurfaceMesh;
        name finnedTube;
    }
    
    refinementBox
    {
        type searchableBox;
        min (0.017 0 0);
        max (0.20400000000000001 0.036 0.013500000000000002);
    }
}

castellatedMeshControls
{
    maxLocalCells 1000000;
    maxGlobalCells 2000000;
    minRefinementCells 10;
    maxLoadUnbalance 0.10;
    nCellsBetweenLevels 3;
    
    features
    (
    );
    
    refinementSurfaces
    {
        finnedTube
        {
            level (2 3);
            
            cellZone solid;
            faceZone solid;
            cellZoneInside inside;
        }
    }
    
    resolveFeatureAngle 30;
    
    refinementRegions
    {
        refinementBox
        {
            mode inside;
            levels ((1E15 1));
        }
    }
    
    locationInMesh (0.017 0.018 0.006750000000000001);
    
    allowFreeStandingZoneFaces true;
}

snapControls
{
    nSmoothPatch 3;
    tolerance 2.0;
    nSolveIter 100;
    nRelaxIter 5;
    nFeatureSnapIter 10;
    implicitFeatureSnap true;
    explicitFeatureSnap false;
    multiRegionFeatureSnap false;
}

addLayersControls
{
    relativeSizes true;
    layers
    {
    }
    expansionRatio 1.2;
    finalLayerThickness 0.5;
    minThickness 0.1;
    nGrow 0;
    featureAngle 60;
    nRelaxIter 5;
    nSmoothSurfaceNormals 1;
    nSmoothNormals 3;
    nSmoothThickness 10;
    maxFaceThicknessRatio 0.5;
    maxThicknessToMedialRatio 0.3;
    minMedianAxisAngle 90;
    nBufferCellsNoExtrude 0;
    nLayerIter 50;
}

meshQualityControls
{
    maxNonOrtho 65;
    maxBoundarySkewness 20;
    maxInternalSkewness 4;
    maxConcave 80;
    minVol 1e-13;
    minTetQuality -1e30;
    minArea -1;
    minTwist 0.01;
    minDeterminant 0.001;
    minFaceWeight 0.05;
    minVolRatio 0.01;
    minTriangleTwist -1;
    nSmoothScale 4;
    errorReduction 0.75;
    relaxed
    {
        maxNonOrtho 75;
    }
}

writeFlags
(
    scalarLevels
    layerSets
    layerFields
);

mergeTolerance 1e-6;
