FoamFile { version 2.0; format ascii; class volScalarField; object p; }
dimensions [1 -1 -2 0 0 0 0];
internalField uniform 0;
boundaryField {
    top { type symmetry; }
    front { type symmetry; }
    back { type symmetry; }
    domain10_to_domain3 { type calculated; value uniform 0; }
}
