FoamFile
{
    version     2.0;
    format      ascii;
    class       volScalarField;
    location    "0/fluid";
    object      p;
}

dimensions      [1 -1 -2 0 0 0 0];
internalField   uniform 0;

boundaryField
{
    inlet
    {
        type            cyclicAMI;
        neighbourPatch  outlet;
        transform       translational;
        separationVector (0.12 0 0);
    }
    outlet
    {
        type            cyclicAMI;
        neighbourPatch  inlet;
        transform       translational;
        separationVector (-0.12 0 0);
    }
    top
    {
        type            symmetry;
    }
    bottom
    {
        type            symmetry;
    }
    front
    {
        type            symmetry;
    }
    back
    {
        type            symmetry;
    }
fluid_to_domain0
{
    type            fixedFluxPressure;
}
fluid_to_domain1
{
    type            fixedFluxPressure;
}
fluid_to_solid
{
    type            fixedFluxPressure;
}
}
