FoamFile
{
    version     2.0;
    format      ascii;
    class       volVectorField;
    location    "0/domain0";
    object      U;
}

dimensions      [0 1 -1 0 0 0 0];
internalField   uniform (0 0 0);

boundaryField
{
    domain0_to_fluid
    {
        type            fixedValue;
        value           uniform (0 0 0);
    }
    defaultFaces
    {
        type            fixedValue;
        value           uniform (0 0 0);
    }
}
