FoamFile
{
    version     2.0;
    format      ascii;
    class       volScalarField;
    location    "0/domain6";
    object      T;
}

dimensions      [0 0 0 1 0 0 0];
internalField   uniform 320.0;

boundaryField
{
    domain6_to_fluid
    {
        type            compressible::turbulentTemperatureCoupledBaffleMixed;
        Tnbr            T;
        kappaMethod     solidThermo;
        value           uniform 320.0;
    }
    defaultFaces
    {
        type            zeroGradient;
    }
}
