FoamFile
{
    version     2.0;
    format      ascii;
    class       dictionary;
    location    "constant/domain17";
    object      thermophysicalProperties;
}

thermoType
{
    type            heSolidThermo;
    mixture         pureMixture;
    transport       constIso;
    thermo          hConst;
    equationOfState rhoConst;
    specie          specie;
    energy          sensibleEnthalpy;
}

mixture
{
    specie
    {
        molWeight   63.55;
    }
    thermodynamics
    {
        Cp          385;
        Hf          0;
    }
    transport
    {
        kappa       400;
    }
    equationOfState
    {
        rho         8960;
    }
}
