FoamFile
{
    version     2.0;
    format      ascii;
    class       dictionary;
    object      fvSolution;
}

solvers
{
    p_rgh
    {
        solver          GAMG;
        tolerance       1e-8;
        relTol          0.001;
        smoother        DICGaussSeidel;
        cacheAgglomeration true;
        agglomerator    faceAreaPair;
        nCellsInCoarsestLevel 100;
        mergeLevels     1;
    }

    "(U|h|T)"
    {
        solver          PBiCGStab;
        preconditioner  DILU;
        tolerance       1e-9;
        relTol          0.001;
    }
}

SIMPLE
{
    nNonOrthogonalCorrectors 3;
    pRefCell        0;
    pRefValue       0;
    consistent      yes;
}

relaxationFactors
{
    equations
    {
        U               0.3;
        h               0.01;
    }
    fields
    {
        p_rgh           0.3;
        rho             0.5;
    }
}
