FoamFile
{
    version     2.0;
    format      ascii;
    class       volScalarField;
    location    "0/fluid";
    object      p;
}

dimensions      [1 -1 -2 0 0 0 0];
internalField   uniform 0;

boundaryField
{
    inlet
    {
        type            calculated;
        value           uniform 0;
    }
    outlet
    {
        type            calculated;
        value           uniform 0;
    }
    top
    {
        type            symmetry;
    }
    bottom
    {
        type            symmetry;
    }
    front
    {
        type            symmetry;
    }
    back
    {
        type            symmetry;
    }
fluid_to_domain0
{
    type            calculated;
    value           uniform 0;
}
fluid_to_domain1
{
    type            calculated;
    value           uniform 0;
}
fluid_to_domain2
{
    type            calculated;
    value           uniform 0;
}
fluid_to_domain3
{
    type            calculated;
    value           uniform 0;
}
fluid_to_domain4
{
    type            calculated;
    value           uniform 0;
}
fluid_to_domain6
{
    type            calculated;
    value           uniform 0;
}
fluid_to_domain7
{
    type            calculated;
    value           uniform 0;
}
fluid_to_domain8
{
    type            calculated;
    value           uniform 0;
}
fluid_to_solid
{
    type            calculated;
    value           uniform 0;
}
}
