FoamFile { version 2.0; format ascii; class volScalarField; object T; }
dimensions [0 0 0 1 0 0 0];
internalField uniform 320;
boundaryField {
    front { type symmetry; }
    back { type symmetry; }
    domain7_to_domain5 { type compressible::turbulentTemperatureCoupledBaffleMixed; Tnbr T; kappaMethod solidThermo; value uniform 320; }
}
