/*--------------------------------*- C++ -*----------------------------------*\
| =========                 |                                                 |
| \\      /  F ield         | OpenFOAM: The Open Source CFD Toolbox           |
|  \\    /   O peration     | Version:                                        |
|   \\  /    A nd           | Website:  www.openfoam.com                      |
|    \\/     M anipulation  |                                                 |
\*---------------------------------------------------------------------------*/
FoamFile
{
    version     2.0;
    format      ascii;
    class       extendedFeatureEdgeMesh;
    location    "constant/extendedFeatureEdgeMesh";
    object      finnedTube.extendedFeatureEdgeMesh;
}
// * * * * * * * * * * * * * * * * * * * * * * * * * * * * * * * * * * * * * //

// points

2780
(
(0.059 -1.95943e-18 0.0135)
(0.043 -2.482e-16 0.0135)
(0.059 -1.95943e-18 0)
(0.057 -1.46958e-18 0.0135)
(0.057 -1.46958e-18 0)
(0.069 -4.40873e-18 0.0025)
(0.069 -4.40873e-18 0.002)
(0.069 -4.40873e-18 0.0065)
(0.069 -4.40873e-18 0.007)
(0.069 -4.40873e-18 0.0115)
(0.069 -4.40873e-18 0.011)
(0.045 2.49501e-16 0.0135)
(0.045 2.49501e-16 0)
(0.043 -2.482e-16 0)
(0.033 2.20436e-18 0.011)
(0.033 2.20436e-18 0.0115)
(0.033 2.20436e-18 0.007)
(0.033 2.20436e-18 0.0065)
(0.033 2.20436e-18 0.002)
(0.033 2.20436e-18 0.0025)
(0.043 0.036 0.0135)
(0.059 0.036 0.0135)
(0.033 0.036 0.0115)
(0.069 0.036 0.0115)
(0.043 0.036 0)
(0.045 0.036 0)
(0.045 0.036 0.0135)
(0.033 0.036 0.011)
(0.033 0.036 0.0065)
(0.033 0.036 0.007)
(0.033 0.036 0.002)
(0.033 0.036 0.0025)
(0.057 0.036 0.0135)
(0.059 0.036 0)
(0.057 0.036 0)
(0.069 0.036 0.011)
(0.069 0.036 0.0025)
(0.069 0.036 0.002)
(0.069 0.036 0.007)
(0.069 0.036 0.0065)
(0.127 -1.95943e-18 0.0135)
(0.111 -2.482e-16 0.0135)
(0.125 -1.46958e-18 0)
(0.125 -1.46958e-18 0.0135)
(0.127 -1.95943e-18 0)
(0.137 -4.40873e-18 0.002)
(0.137 -4.40873e-18 0.0025)
(0.137 -4.40873e-18 0.0065)
(0.137 -4.40873e-18 0.007)
(0.137 -4.40873e-18 0.0115)
(0.137 -4.40873e-18 0.011)
(0.113 2.49501e-16 0.0135)
(0.113 2.49501e-16 0)
(0.111 -2.482e-16 0)
(0.101 2.20436e-18 0.011)
(0.101 2.20436e-18 0.0115)
(0.101 2.20436e-18 0.007)
(0.101 2.20436e-18 0.0065)
(0.101 2.20436e-18 0.002)
(0.101 2.20436e-18 0.0025)
(0.127 0.036 0.0135)
(0.111 0.036 0.0135)
(0.101 0.036 0.0115)
(0.137 0.036 0.0115)
(0.111 0.036 0)
(0.113 0.036 0.0135)
(0.113 0.036 0)
(0.101 0.036 0.011)
(0.101 0.036 0.0065)
(0.101 0.036 0.007)
(0.101 0.036 0.002)
(0.101 0.036 0.0025)
(0.125 0.036 0.0135)
(0.125 0.036 0)
(0.127 0.036 0)
(0.137 0.036 0.011)
(0.137 0.036 0.0025)
(0.137 0.036 0.002)
(0.137 0.036 0.007)
(0.137 0.036 0.0065)
(0.059 -1.95943e-18 0.0115)
(0.043 9.79717e-19 0.0115)
(0.059 -1.95943e-18 0.0025)
(0.059 -1.95943e-18 0.007)
(0.059 -1.95943e-18 0.0065)
(0.059 -1.95943e-18 0.011)
(0.059 -1.95943e-18 0.002)
(0.043 9.79717e-19 0.011)
(0.043 9.79717e-19 0.0065)
(0.043 9.79717e-19 0.0025)
(0.043 9.79717e-19 0.007)
(0.043 9.79717e-19 0.002)
(0.043 0.036 0.0115)
(0.059 0.036 0.0115)
(0.043 0.036 0.011)
(0.043 0.036 0.0065)
(0.043 0.036 0.0025)
(0.043 0.036 0.002)
(0.043 0.036 0.007)
(0.059 0.036 0.0025)
(0.059 0.036 0.007)
(0.059 0.036 0.011)
(0.059 0.036 0.0065)
(0.059 0.036 0.002)
(0.127 -1.95943e-18 0.0115)
(0.111 9.79717e-19 0.0115)
(0.127 -1.95943e-18 0.0025)
(0.127 -1.95943e-18 0.007)
(0.127 -1.95943e-18 0.011)
(0.127 -1.95943e-18 0.0065)
(0.127 -1.95943e-18 0.002)
(0.111 9.79717e-19 0.011)
(0.111 9.79717e-19 0.0065)
(0.111 9.79717e-19 0.0025)
(0.111 9.79717e-19 0.007)
(0.111 9.79717e-19 0.002)
(0.127 0.036 0.0115)
(0.111 0.036 0.0115)
(0.111 0.036 0.011)
(0.111 0.036 0.0065)
(0.111 0.036 0.0025)
(0.111 0.036 0.007)
(0.111 0.036 0.002)
(0.127 0.036 0.0025)
(0.127 0.036 0.007)
(0.127 0.036 0.0065)
(0.127 0.036 0.011)
(0.127 0.036 0.002)
(0.0432325 0.00191453 0.0135)
(0.0439164 0.00371779 0.0135)
(0.0450119 0.00530498 0.0135)
(0.0569881 0.00530498 0.0135)
(0.0580836 0.00371779 0.0135)
(0.0481632 0.00748013 0.0135)
(0.0500357 0.00794167 0.0135)
(0.0587675 0.00191453 0.0135)
(0.0555445 0.00658387 0.0135)
(0.0519643 0.00794167 0.0135)
(0.0538368 0.00748013 0.0135)
(0.0464555 0.00658387 0.0135)
(0.059 -1.95943e-18 0.0045)
(0.059 -1.95943e-18 0.009)
(0.0579305 0 0)
(0.0579305 0 0.0135)
(0.057 -1.46958e-18 0.012)
(0.057 -1.46958e-18 0.0015)
(0.057 -1.46958e-18 0.0045)
(0.057 -1.46958e-18 0.003)
(0.057 -1.46958e-18 0.009)
(0.057 -1.46958e-18 0.0075)
(0.057 -1.46958e-18 0.006)
(0.057 -1.46958e-18 0.0105)
(0.061 0 0.0115)
(0.061 0 0.002)
(0.067 0 0.002)
(0.067 0 0.0025)
(0.061 0 0.0025)
(0.061 0 0.007)
(0.061 0 0.0065)
(0.067 0 0.007)
(0.067 0 0.0065)
(0.061 0 0.011)
(0.067 0 0.0115)
(0.067 0 0.011)
(0.065 0 0.002)
(0.065 0 0.0025)
(0.063 0 0.002)
(0.063 0 0.0025)
(0.065 0 0.0065)
(0.065 0 0.007)
(0.063 0 0.0065)
(0.063 0 0.007)
(0.065 0 0.011)
(0.065 0 0.0115)
(0.063 0 0.011)
(0.063 0 0.0115)
(0.048 0.00519615 0.0135)
(0.0494471 0.00579556 0.0135)
(0.0525529 0.00579556 0.0135)
(0.054 0.00519615 0.0135)
(0.051 0.006 0.0135)
(0.0452044 0.00155291 0.0135)
(0.0567956 0.00155291 0.0135)
(0.0440695 0 0.0135)
(0.0458038 0.003 0.0135)
(0.0561962 0.003 0.0135)
(0.0552426 0.00424264 0.0135)
(0.0467574 0.00424264 0.0135)
(0.043 0 0.009)
(0.043 0 0.0045)
(0.045 0 0.0015)
(0.045 0 0.012)
(0.0440695 0 0)
(0.045 0 0.009)
(0.045 0 0.0105)
(0.045 0 0.0045)
(0.045 0 0.006)
(0.045 0 0.003)
(0.045 0 0.0075)
(0.041 0 0.011)
(0.041 0 0.0115)
(0.035 0 0.0115)
(0.035 0 0.011)
(0.041 0 0.007)
(0.035 0 0.0065)
(0.035 0 0.007)
(0.041 0 0.0065)
(0.041 0 0.002)
(0.041 0 0.0025)
(0.035 0 0.002)
(0.035 0 0.0025)
(0.039 0 0.0115)
(0.037 0 0.0115)
(0.039 0 0.011)
(0.037 0 0.011)
(0.039 0 0.007)
(0.037 0 0.007)
(0.039 0 0.0065)
(0.037 0 0.0065)
(0.039 0 0.0025)
(0.039 0 0.002)
(0.037 0 0.0025)
(0.037 0 0.002)
(0.0685792 0.00386947 0.0115)
(0.0680578 0.00574743 0.0115)
(0.0339422 0.00574743 0.0115)
(0.0334208 0.00386947 0.0115)
(0.0331055 0.00194614 0.0115)
(0.0688945 0.00194614 0.0115)
(0.0640679 0.0123786 0.0115)
(0.062653 0.0137189 0.0115)
(0.039347 0.0137189 0.0115)
(0.0379321 0.0123786 0.0115)
(0.0558155 0.0173439 0.0115)
(0.0539121 0.0177629 0.0115)
(0.0480879 0.0177629 0.0115)
(0.0461845 0.0173439 0.0115)
(0.0346636 0.007558 0.0115)
(0.0673364 0.007558 0.0115)
(0.0425686 0.0159032 0.0115)
(0.0408986 0.0148984 0.0115)
(0.0611014 0.0148984 0.0115)
(0.0594314 0.0159032 0.0115)
(0.0366703 0.0108931 0.0115)
(0.0355766 0.00927997 0.0115)
(0.0664234 0.00927997 0.0115)
(0.0653297 0.0108931 0.0115)
(0.0519745 0.0179736 0.0115)
(0.0500255 0.0179736 0.0115)
(0.0443375 0.0167216 0.0115)
(0.0576625 0.0167216 0.0115)
(0.054 0.00519615 0)
(0.0525529 0.00579556 0)
(0.0494471 0.00579556 0)
(0.048 0.00519615 0)
(0.051 0.006 0)
(0.0439164 0.00371779 0)
(0.0450119 0.00530498 0)
(0.0569881 0.00530498 0)
(0.0580836 0.00371779 0)
(0.0464555 0.00658387 0)
(0.0555445 0.00658387 0)
(0.0481632 0.00748013 0)
(0.0538368 0.00748013 0)
(0.0500357 0.00794167 0)
(0.0519643 0.00794167 0)
(0.0567956 0.00155291 0)
(0.0452044 0.00155291 0)
(0.0432325 0.00191453 0)
(0.0587675 0.00191453 0)
(0.0458038 0.003 0)
(0.0561962 0.003 0)
(0.0552426 0.00424264 0)
(0.0467574 0.00424264 0)
(0.0680578 0.00574743 0.002)
(0.0685792 0.00386947 0.002)
(0.0334208 0.00386947 0.002)
(0.0339422 0.00574743 0.002)
(0.0331055 0.00194614 0.002)
(0.0688945 0.00194614 0.002)
(0.062653 0.0137189 0.002)
(0.0640679 0.0123786 0.002)
(0.0379321 0.0123786 0.002)
(0.039347 0.0137189 0.002)
(0.0539121 0.0177629 0.002)
(0.0558155 0.0173439 0.002)
(0.0461845 0.0173439 0.002)
(0.0480879 0.0177629 0.002)
(0.0346636 0.007558 0.002)
(0.0673364 0.007558 0.002)
(0.0408986 0.0148984 0.002)
(0.0425686 0.0159032 0.002)
(0.0594314 0.0159032 0.002)
(0.0611014 0.0148984 0.002)
(0.0355766 0.00927997 0.002)
(0.0366703 0.0108931 0.002)
(0.0653297 0.0108931 0.002)
(0.0664234 0.00927997 0.002)
(0.0500255 0.0179736 0.002)
(0.0519745 0.0179736 0.002)
(0.0443375 0.0167216 0.002)
(0.0576625 0.0167216 0.002)
(0.0688945 0.00194614 0.0025)
(0.0331055 0.00194614 0.0025)
(0.0685792 0.00386947 0.0025)
(0.0680578 0.00574743 0.0025)
(0.0673364 0.007558 0.0025)
(0.0664234 0.00927997 0.0025)
(0.0653297 0.0108931 0.0025)
(0.0640679 0.0123786 0.0025)
(0.062653 0.0137189 0.0025)
(0.0611014 0.0148984 0.0025)
(0.0594314 0.0159032 0.0025)
(0.0576625 0.0167216 0.0025)
(0.0558155 0.0173439 0.0025)
(0.0539121 0.0177629 0.0025)
(0.0519745 0.0179736 0.0025)
(0.0500255 0.0179736 0.0025)
(0.0480879 0.0177629 0.0025)
(0.0461845 0.0173439 0.0025)
(0.0443375 0.0167216 0.0025)
(0.0425686 0.0159032 0.0025)
(0.0408986 0.0148984 0.0025)
(0.039347 0.0137189 0.0025)
(0.0379321 0.0123786 0.0025)
(0.0366703 0.0108931 0.0025)
(0.0355766 0.00927997 0.0025)
(0.0346636 0.007558 0.0025)
(0.0339422 0.00574743 0.0025)
(0.0334208 0.00386947 0.0025)
(0.0680578 0.00574743 0.0065)
(0.0685792 0.00386947 0.0065)
(0.0334208 0.00386947 0.0065)
(0.0339422 0.00574743 0.0065)
(0.0331055 0.00194614 0.0065)
(0.0688945 0.00194614 0.0065)
(0.062653 0.0137189 0.0065)
(0.0640679 0.0123786 0.0065)
(0.0379321 0.0123786 0.0065)
(0.039347 0.0137189 0.0065)
(0.0539121 0.0177629 0.0065)
(0.0558155 0.0173439 0.0065)
(0.0461845 0.0173439 0.0065)
(0.0480879 0.0177629 0.0065)
(0.0346636 0.007558 0.0065)
(0.0673364 0.007558 0.0065)
(0.0408986 0.0148984 0.0065)
(0.0425686 0.0159032 0.0065)
(0.0594314 0.0159032 0.0065)
(0.0611014 0.0148984 0.0065)
(0.0355766 0.00927997 0.0065)
(0.0366703 0.0108931 0.0065)
(0.0653297 0.0108931 0.0065)
(0.0664234 0.00927997 0.0065)
(0.0500255 0.0179736 0.0065)
(0.0519745 0.0179736 0.0065)
(0.0443375 0.0167216 0.0065)
(0.0576625 0.0167216 0.0065)
(0.0688945 0.00194614 0.007)
(0.0331055 0.00194614 0.007)
(0.0685792 0.00386947 0.007)
(0.0680578 0.00574743 0.007)
(0.0673364 0.007558 0.007)
(0.0664234 0.00927997 0.007)
(0.0653297 0.0108931 0.007)
(0.0640679 0.0123786 0.007)
(0.062653 0.0137189 0.007)
(0.0611014 0.0148984 0.007)
(0.0594314 0.0159032 0.007)
(0.0576625 0.0167216 0.007)
(0.0558155 0.0173439 0.007)
(0.0539121 0.0177629 0.007)
(0.0519745 0.0179736 0.007)
(0.0500255 0.0179736 0.007)
(0.0480879 0.0177629 0.007)
(0.0461845 0.0173439 0.007)
(0.0443375 0.0167216 0.007)
(0.0425686 0.0159032 0.007)
(0.0408986 0.0148984 0.007)
(0.039347 0.0137189 0.007)
(0.0379321 0.0123786 0.007)
(0.0366703 0.0108931 0.007)
(0.0355766 0.00927997 0.007)
(0.0346636 0.007558 0.007)
(0.0339422 0.00574743 0.007)
(0.0334208 0.00386947 0.007)
(0.0680578 0.00574743 0.011)
(0.0685792 0.00386947 0.011)
(0.0334208 0.00386947 0.011)
(0.0339422 0.00574743 0.011)
(0.0331055 0.00194614 0.011)
(0.0688945 0.00194614 0.011)
(0.062653 0.0137189 0.011)
(0.0640679 0.0123786 0.011)
(0.0379321 0.0123786 0.011)
(0.039347 0.0137189 0.011)
(0.0539121 0.0177629 0.011)
(0.0558155 0.0173439 0.011)
(0.0461845 0.0173439 0.011)
(0.0480879 0.0177629 0.011)
(0.0346636 0.007558 0.011)
(0.0673364 0.007558 0.011)
(0.0408986 0.0148984 0.011)
(0.0425686 0.0159032 0.011)
(0.0594314 0.0159032 0.011)
(0.0611014 0.0148984 0.011)
(0.0355766 0.00927997 0.011)
(0.0366703 0.0108931 0.011)
(0.0653297 0.0108931 0.011)
(0.0664234 0.00927997 0.011)
(0.0500255 0.0179736 0.011)
(0.0519745 0.0179736 0.011)
(0.0443375 0.0167216 0.011)
(0.0576625 0.0167216 0.011)
(0.0439164 0.0322822 0.0135)
(0.0432325 0.0340855 0.0135)
(0.0580836 0.0322822 0.0135)
(0.0569881 0.030695 0.0135)
(0.0587675 0.0340855 0.0135)
(0.0538368 0.0285199 0.0135)
(0.0519643 0.0280583 0.0135)
(0.0500357 0.0280583 0.0135)
(0.0555445 0.0294161 0.0135)
(0.0450119 0.030695 0.0135)
(0.0481632 0.0285199 0.0135)
(0.0464555 0.0294161 0.0135)
(0.061 0.036 0.0115)
(0.0680578 0.0302526 0.0115)
(0.0685792 0.0321305 0.0115)
(0.0688945 0.0340539 0.0115)
(0.0331055 0.0340539 0.0115)
(0.0334208 0.0321305 0.0115)
(0.063 0.036 0.0115)
(0.041 0.036 0.0115)
(0.039 0.036 0.0115)
(0.037 0.036 0.0115)
(0.035 0.036 0.0115)
(0.067 0.036 0.0115)
(0.065 0.036 0.0115)
(0.062653 0.0222811 0.0115)
(0.0640679 0.0236214 0.0115)
(0.0379321 0.0236214 0.0115)
(0.039347 0.0222811 0.0115)
(0.0539121 0.0182371 0.0115)
(0.0558155 0.0186561 0.0115)
(0.0461845 0.0186561 0.0115)
(0.0480879 0.0182371 0.0115)
(0.0339422 0.0302526 0.0115)
(0.0346636 0.028442 0.0115)
(0.0673364 0.028442 0.0115)
(0.0594314 0.0200968 0.0115)
(0.0611014 0.0211016 0.0115)
(0.0408986 0.0211016 0.0115)
(0.0425686 0.0200968 0.0115)
(0.0653297 0.0251069 0.0115)
(0.0664234 0.02672 0.0115)
(0.0500255 0.0180264 0.0115)
(0.0519745 0.0180264 0.0115)
(0.0355766 0.02672 0.0115)
(0.0366703 0.0251069 0.0115)
(0.0576625 0.0192784 0.0115)
(0.0443375 0.0192784 0.0115)
(0.043 0.036 0.009)
(0.043 0.036 0.0045)
(0.0440695 0.036 0.0135)
(0.0440695 0.036 0)
(0.045 0.036 0.0015)
(0.045 0.036 0.012)
(0.045 0.036 0.0105)
(0.045 0.036 0.009)
(0.045 0.036 0.006)
(0.045 0.036 0.0045)
(0.045 0.036 0.003)
(0.045 0.036 0.0075)
(0.041 0.036 0.011)
(0.035 0.036 0.011)
(0.041 0.036 0.007)
(0.035 0.036 0.0065)
(0.035 0.036 0.007)
(0.041 0.036 0.0065)
(0.041 0.036 0.002)
(0.041 0.036 0.0025)
(0.035 0.036 0.0025)
(0.035 0.036 0.002)
(0.039 0.036 0.011)
(0.037 0.036 0.011)
(0.039 0.036 0.007)
(0.037 0.036 0.007)
(0.039 0.036 0.0065)
(0.037 0.036 0.0065)
(0.039 0.036 0.0025)
(0.037 0.036 0.0025)
(0.039 0.036 0.002)
(0.037 0.036 0.002)
(0.0494471 0.0302044 0.0135)
(0.048 0.0308038 0.0135)
(0.054 0.0308038 0.0135)
(0.0525529 0.0302044 0.0135)
(0.051 0.03 0.0135)
(0.0452044 0.0344471 0.0135)
(0.0567956 0.0344471 0.0135)
(0.0579305 0.036 0.0135)
(0.0458038 0.033 0.0135)
(0.0561962 0.033 0.0135)
(0.0467574 0.0317574 0.0135)
(0.0552426 0.0317574 0.0135)
(0.059 0.036 0.0045)
(0.059 0.036 0.009)
(0.0579305 0.036 0)
(0.057 0.036 0.012)
(0.057 0.036 0.0015)
(0.057 0.036 0.003)
(0.057 0.036 0.0045)
(0.057 0.036 0.0075)
(0.057 0.036 0.009)
(0.057 0.036 0.0105)
(0.057 0.036 0.006)
(0.061 0.036 0.0025)
(0.061 0.036 0.002)
(0.067 0.036 0.0025)
(0.067 0.036 0.002)
(0.061 0.036 0.007)
(0.061 0.036 0.0065)
(0.067 0.036 0.0065)
(0.067 0.036 0.007)
(0.061 0.036 0.011)
(0.067 0.036 0.011)
(0.065 0.036 0.011)
(0.063 0.036 0.011)
(0.065 0.036 0.002)
(0.065 0.036 0.0025)
(0.063 0.036 0.002)
(0.063 0.036 0.0025)
(0.065 0.036 0.0065)
(0.065 0.036 0.007)
(0.063 0.036 0.0065)
(0.063 0.036 0.007)
(0.0331055 0.0340539 0.011)
(0.0688945 0.0340539 0.011)
(0.0334208 0.0321305 0.011)
(0.0339422 0.0302526 0.011)
(0.0346636 0.028442 0.011)
(0.0355766 0.02672 0.011)
(0.0366703 0.0251069 0.011)
(0.0379321 0.0236214 0.011)
(0.039347 0.0222811 0.011)
(0.0408986 0.0211016 0.011)
(0.0425686 0.0200968 0.011)
(0.0443375 0.0192784 0.011)
(0.0461845 0.0186561 0.011)
(0.0480879 0.0182371 0.011)
(0.0500255 0.0180264 0.011)
(0.0519745 0.0180264 0.011)
(0.0539121 0.0182371 0.011)
(0.0558155 0.0186561 0.011)
(0.0576625 0.0192784 0.011)
(0.0594314 0.0200968 0.011)
(0.0611014 0.0211016 0.011)
(0.062653 0.0222811 0.011)
(0.0640679 0.0236214 0.011)
(0.0653297 0.0251069 0.011)
(0.0664234 0.02672 0.011)
(0.0673364 0.028442 0.011)
(0.0680578 0.0302526 0.011)
(0.0685792 0.0321305 0.011)
(0.0552426 0.0317574 0)
(0.054 0.0308038 0)
(0.051 0.03 0)
(0.0494471 0.0302044 0)
(0.0458038 0.033 0)
(0.0452044 0.0344471 0)
(0.0561962 0.033 0)
(0.048 0.0308038 0)
(0.0467574 0.0317574 0)
(0.0525529 0.0302044 0)
(0.0567956 0.0344471 0)
(0.0680578 0.0302526 0.007)
(0.0685792 0.0321305 0.007)
(0.0688945 0.0340539 0.007)
(0.0331055 0.0340539 0.007)
(0.0334208 0.0321305 0.007)
(0.062653 0.0222811 0.007)
(0.0640679 0.0236214 0.007)
(0.0379321 0.0236214 0.007)
(0.039347 0.0222811 0.007)
(0.0539121 0.0182371 0.007)
(0.0558155 0.0186561 0.007)
(0.0461845 0.0186561 0.007)
(0.0480879 0.0182371 0.007)
(0.0339422 0.0302526 0.007)
(0.0346636 0.028442 0.007)
(0.0673364 0.028442 0.007)
(0.0594314 0.0200968 0.007)
(0.0611014 0.0211016 0.007)
(0.0408986 0.0211016 0.007)
(0.0425686 0.0200968 0.007)
(0.0653297 0.0251069 0.007)
(0.0664234 0.02672 0.007)
(0.0500255 0.0180264 0.007)
(0.0519745 0.0180264 0.007)
(0.0355766 0.02672 0.007)
(0.0366703 0.0251069 0.007)
(0.0576625 0.0192784 0.007)
(0.0443375 0.0192784 0.007)
(0.0331055 0.0340539 0.0065)
(0.0688945 0.0340539 0.0065)
(0.0334208 0.0321305 0.0065)
(0.0339422 0.0302526 0.0065)
(0.0346636 0.028442 0.0065)
(0.0355766 0.02672 0.0065)
(0.0366703 0.0251069 0.0065)
(0.0379321 0.0236214 0.0065)
(0.039347 0.0222811 0.0065)
(0.0408986 0.0211016 0.0065)
(0.0425686 0.0200968 0.0065)
(0.0443375 0.0192784 0.0065)
(0.0461845 0.0186561 0.0065)
(0.0480879 0.0182371 0.0065)
(0.0500255 0.0180264 0.0065)
(0.0519745 0.0180264 0.0065)
(0.0539121 0.0182371 0.0065)
(0.0558155 0.0186561 0.0065)
(0.0576625 0.0192784 0.0065)
(0.0594314 0.0200968 0.0065)
(0.0611014 0.0211016 0.0065)
(0.062653 0.0222811 0.0065)
(0.0640679 0.0236214 0.0065)
(0.0653297 0.0251069 0.0065)
(0.0664234 0.02672 0.0065)
(0.0673364 0.028442 0.0065)
(0.0680578 0.0302526 0.0065)
(0.0685792 0.0321305 0.0065)
(0.0680578 0.0302526 0.0025)
(0.0685792 0.0321305 0.0025)
(0.0688945 0.0340539 0.0025)
(0.0331055 0.0340539 0.0025)
(0.0334208 0.0321305 0.0025)
(0.062653 0.0222811 0.0025)
(0.0640679 0.0236214 0.0025)
(0.0379321 0.0236214 0.0025)
(0.039347 0.0222811 0.0025)
(0.0539121 0.0182371 0.0025)
(0.0558155 0.0186561 0.0025)
(0.0461845 0.0186561 0.0025)
(0.0480879 0.0182371 0.0025)
(0.0339422 0.0302526 0.0025)
(0.0346636 0.028442 0.0025)
(0.0673364 0.028442 0.0025)
(0.0594314 0.0200968 0.0025)
(0.0611014 0.0211016 0.0025)
(0.0408986 0.0211016 0.0025)
(0.0425686 0.0200968 0.0025)
(0.0653297 0.0251069 0.0025)
(0.0664234 0.02672 0.0025)
(0.0500255 0.0180264 0.0025)
(0.0519745 0.0180264 0.0025)
(0.0355766 0.02672 0.0025)
(0.0366703 0.0251069 0.0025)
(0.0576625 0.0192784 0.0025)
(0.0443375 0.0192784 0.0025)
(0.0331055 0.0340539 0.002)
(0.0688945 0.0340539 0.002)
(0.0334208 0.0321305 0.002)
(0.0339422 0.0302526 0.002)
(0.0346636 0.028442 0.002)
(0.0355766 0.02672 0.002)
(0.0366703 0.0251069 0.002)
(0.0379321 0.0236214 0.002)
(0.039347 0.0222811 0.002)
(0.0408986 0.0211016 0.002)
(0.0425686 0.0200968 0.002)
(0.0443375 0.0192784 0.002)
(0.0461845 0.0186561 0.002)
(0.0480879 0.0182371 0.002)
(0.0500255 0.0180264 0.002)
(0.0519745 0.0180264 0.002)
(0.0539121 0.0182371 0.002)
(0.0558155 0.0186561 0.002)
(0.0576625 0.0192784 0.002)
(0.0594314 0.0200968 0.002)
(0.0611014 0.0211016 0.002)
(0.062653 0.0222811 0.002)
(0.0640679 0.0236214 0.002)
(0.0653297 0.0251069 0.002)
(0.0664234 0.02672 0.002)
(0.0673364 0.028442 0.002)
(0.0680578 0.0302526 0.002)
(0.0685792 0.0321305 0.002)
(0.0450119 0.030695 0)
(0.0464555 0.0294161 0)
(0.0538368 0.0285199 0)
(0.0555445 0.0294161 0)
(0.0569881 0.030695 0)
(0.0481632 0.0285199 0)
(0.0432325 0.0340855 0)
(0.0439164 0.0322822 0)
(0.0587675 0.0340855 0)
(0.0580836 0.0322822 0)
(0.0500357 0.0280583 0)
(0.0519643 0.0280583 0)
(0.0927675 0.0199145 0.0135)
(0.093 0.018 0.0135)
(0.0909881 0.023305 0.0135)
(0.0920836 0.0217178 0.0135)
(0.0840357 0.0259417 0.0135)
(0.0859643 0.0259417 0.0135)
(0.0772325 0.0160855 0.0135)
(0.077 0.018 0.0135)
(0.0779164 0.0217178 0.0135)
(0.0790119 0.023305 0.0135)
(0.0779164 0.0142822 0.0135)
(0.0772325 0.0199145 0.0135)
(0.0927675 0.0160855 0.0135)
(0.0920836 0.0142822 0.0135)
(0.0804555 0.0245839 0.0135)
(0.0909881 0.012695 0.0135)
(0.0895445 0.0114161 0.0135)
(0.0821632 0.0254801 0.0135)
(0.0859643 0.0100583 0.0135)
(0.0840357 0.0100583 0.0135)
(0.0878368 0.0105199 0.0135)
(0.0895445 0.0245839 0.0135)
(0.0878368 0.0254801 0.0135)
(0.0804555 0.0114161 0.0135)
(0.0790119 0.012695 0.0135)
(0.0821632 0.0105199 0.0135)
(0.0726214 0.00493208 0.0115)
(0.0741069 0.00367032 0.0115)
(0.0830539 0.000105517 0.0115)
(0.085 0 0.0115)
(0.0970443 0.0313766 0.0115)
(0.0955801 0.0325623 0.0115)
(0.0955801 0.00343769 0.0115)
(0.0970443 0.00462339 0.0115)
(0.0676561 0.0131845 0.0115)
(0.0682784 0.0113375 0.0115)
(0.0830539 0.0358945 0.0115)
(0.0811305 0.0355792 0.0115)
(0.0690968 0.00956865 0.0115)
(0.0682784 0.0246625 0.0115)
(0.0676561 0.0228155 0.0115)
(0.0792526 0.000942243 0.0115)
(0.0811305 0.00042083 0.0115)
(0.0792526 0.0350578 0.0115)
(0.0741069 0.0323297 0.0115)
(0.0726214 0.0310679 0.0115)
(0.0670264 0.0170255 0.0115)
(0.0672371 0.0150879 0.0115)
(0.07572 0.00257657 0.0115)
(0.077442 0.00166364 0.0115)
(0.0701016 0.0281014 0.0115)
(0.0690968 0.0264314 0.0115)
(0.0712811 0.00634705 0.0115)
(0.0672371 0.0209121 0.0115)
(0.0670264 0.0189745 0.0115)
(0.077442 0.0343364 0.0115)
(0.07572 0.0334234 0.0115)
(0.0995623 0.00741987 0.0115)
(0.100588 0.009 0.0115)
(0.100588 0.027 0.0115)
(0.0995623 0.0285801 0.0115)
(0.0905623 0.035119 0.0115)
(0.0887424 0.0356067 0.0115)
(0.0887424 0.000393343 0.0115)
(0.0905623 0.000880983 0.0115)
(0.102607 0.0142576 0.0115)
(0.102901 0.0161185 0.0115)
(0.102119 0.0235623 0.0115)
(0.101444 0.0253213 0.0115)
(0.101444 0.0106787 0.0115)
(0.102119 0.0124377 0.0115)
(0.094 0.0335885 0.0115)
(0.0923213 0.0344438 0.0115)
(0.0923213 0.00155618 0.0115)
(0.094 0.00241154 0.0115)
(0.0868815 9.86059e-05 0.0115)
(0.0868815 0.0359014 0.0115)
(0.085 0.036 0.0115)
(0.0983766 0.0300444 0.0115)
(0.0983766 0.00595565 0.0115)
(0.103 0.018 0.0115)
(0.102901 0.0198815 0.0115)
(0.102607 0.0217424 0.0115)
(0.0712811 0.029653 0.0115)
(0.0701016 0.00789863 0.0115)
(0.088 0.0128038 0.0135)
(0.0865529 0.0122044 0.0135)
(0.082 0.0231962 0.0135)
(0.0834471 0.0237956 0.0135)
(0.0834471 0.0122044 0.0135)
(0.082 0.0128038 0.0135)
(0.0865529 0.0237956 0.0135)
(0.088 0.0231962 0.0135)
(0.085 0.012 0.0135)
(0.085 0.024 0.0135)
(0.079 0.018 0.0135)
(0.0792044 0.0195529 0.0135)
(0.0907956 0.0195529 0.0135)
(0.091 0.018 0.0135)
(0.0907956 0.0164471 0.0135)
(0.0792044 0.0164471 0.0135)
(0.0901962 0.015 0.0135)
(0.0798038 0.021 0.0135)
(0.0901962 0.021 0.0135)
(0.0798038 0.015 0.0135)
(0.0892426 0.0222426 0.0135)
(0.0807574 0.0222426 0.0135)
(0.0807574 0.0137574 0.0135)
(0.0892426 0.0137574 0.0135)
(0.102901 0.0161185 0.011)
(0.103 0.018 0.011)
(0.085 0 0.011)
(0.0868815 9.86059e-05 0.011)
(0.0887424 0.000393343 0.011)
(0.0905623 0.000880983 0.011)
(0.0923213 0.00155618 0.011)
(0.094 0.00241154 0.011)
(0.0955801 0.00343769 0.011)
(0.0970443 0.00462339 0.011)
(0.0983766 0.00595565 0.011)
(0.0995623 0.00741987 0.011)
(0.100588 0.009 0.011)
(0.101444 0.0106787 0.011)
(0.102119 0.0124377 0.011)
(0.102607 0.0142576 0.011)
(0.102901 0.0198815 0.011)
(0.0868815 0.0359014 0.011)
(0.085 0.036 0.011)
(0.102607 0.0217424 0.011)
(0.102119 0.0235623 0.011)
(0.101444 0.0253213 0.011)
(0.100588 0.027 0.011)
(0.0995623 0.0285801 0.011)
(0.0983766 0.0300444 0.011)
(0.0970443 0.0313766 0.011)
(0.0955801 0.0325623 0.011)
(0.094 0.0335885 0.011)
(0.0923213 0.0344438 0.011)
(0.0905623 0.035119 0.011)
(0.0887424 0.0356067 0.011)
(0.0830539 0.000105517 0.011)
(0.0830539 0.0358945 0.011)
(0.0811305 0.0355792 0.011)
(0.0792526 0.0350578 0.011)
(0.077442 0.0343364 0.011)
(0.07572 0.0334234 0.011)
(0.0741069 0.0323297 0.011)
(0.0726214 0.0310679 0.011)
(0.0712811 0.029653 0.011)
(0.0701016 0.0281014 0.011)
(0.0690968 0.0264314 0.011)
(0.0682784 0.0246625 0.011)
(0.0676561 0.0228155 0.011)
(0.0672371 0.0209121 0.011)
(0.0670264 0.0189745 0.011)
(0.0670264 0.0170255 0.011)
(0.0672371 0.0150879 0.011)
(0.0676561 0.0131845 0.011)
(0.0682784 0.0113375 0.011)
(0.0690968 0.00956865 0.011)
(0.0701016 0.00789863 0.011)
(0.0712811 0.00634705 0.011)
(0.0726214 0.00493208 0.011)
(0.0741069 0.00367032 0.011)
(0.07572 0.00257657 0.011)
(0.077442 0.00166364 0.011)
(0.0792526 0.000942243 0.011)
(0.0811305 0.00042083 0.011)
(0.0792044 0.0164471 0)
(0.079 0.018 0)
(0.0865529 0.0122044 0)
(0.085 0.012 0)
(0.0834471 0.0122044 0)
(0.085 0.024 0)
(0.0865529 0.0237956 0)
(0.0901962 0.021 0)
(0.0907956 0.0195529 0)
(0.0792044 0.0195529 0)
(0.0798038 0.021 0)
(0.0901962 0.015 0)
(0.0892426 0.0137574 0)
(0.088 0.0231962 0)
(0.0892426 0.0222426 0)
(0.088 0.0128038 0)
(0.0798038 0.015 0)
(0.0834471 0.0237956 0)
(0.0807574 0.0222426 0)
(0.0807574 0.0137574 0)
(0.082 0.0128038 0)
(0.082 0.0231962 0)
(0.0907956 0.0164471 0)
(0.091 0.018 0)
(0.0779164 0.0217178 0)
(0.0790119 0.023305 0)
(0.0920836 0.0142822 0)
(0.0909881 0.012695 0)
(0.0790119 0.012695 0)
(0.0779164 0.0142822 0)
(0.0909881 0.023305 0)
(0.0920836 0.0217178 0)
(0.0804555 0.0245839 0)
(0.0804555 0.0114161 0)
(0.0895445 0.0114161 0)
(0.0895445 0.0245839 0)
(0.0878368 0.0105199 0)
(0.0878368 0.0254801 0)
(0.0821632 0.0254801 0)
(0.0821632 0.0105199 0)
(0.0859643 0.0100583 0)
(0.0840357 0.0100583 0)
(0.0840357 0.0259417 0)
(0.0859643 0.0259417 0)
(0.0772325 0.0160855 0)
(0.0927675 0.0160855 0)
(0.0927675 0.0199145 0)
(0.0772325 0.0199145 0)
(0.077 0.018 0)
(0.093 0.018 0)
(0.0726214 0.00493208 0.007)
(0.0741069 0.00367032 0.007)
(0.0830539 0.000105517 0.007)
(0.085 0 0.007)
(0.0970443 0.0313766 0.007)
(0.0955801 0.0325623 0.007)
(0.0955801 0.00343769 0.007)
(0.0970443 0.00462339 0.007)
(0.0676561 0.0131845 0.007)
(0.0682784 0.0113375 0.007)
(0.0830539 0.0358945 0.007)
(0.0811305 0.0355792 0.007)
(0.0690968 0.00956865 0.007)
(0.0682784 0.0246625 0.007)
(0.0676561 0.0228155 0.007)
(0.0792526 0.000942243 0.007)
(0.0811305 0.00042083 0.007)
(0.0792526 0.0350578 0.007)
(0.0741069 0.0323297 0.007)
(0.0726214 0.0310679 0.007)
(0.0670264 0.0170255 0.007)
(0.0672371 0.0150879 0.007)
(0.07572 0.00257657 0.007)
(0.077442 0.00166364 0.007)
(0.0701016 0.0281014 0.007)
(0.0690968 0.0264314 0.007)
(0.0712811 0.00634705 0.007)
(0.0672371 0.0209121 0.007)
(0.0670264 0.0189745 0.007)
(0.077442 0.0343364 0.007)
(0.07572 0.0334234 0.007)
(0.0995623 0.00741987 0.007)
(0.100588 0.009 0.007)
(0.100588 0.027 0.007)
(0.0995623 0.0285801 0.007)
(0.0905623 0.035119 0.007)
(0.0887424 0.0356067 0.007)
(0.0887424 0.000393343 0.007)
(0.0905623 0.000880983 0.007)
(0.102607 0.0142576 0.007)
(0.102901 0.0161185 0.007)
(0.102119 0.0235623 0.007)
(0.101444 0.0253213 0.007)
(0.101444 0.0106787 0.007)
(0.102119 0.0124377 0.007)
(0.094 0.0335885 0.007)
(0.0923213 0.0344438 0.007)
(0.0923213 0.00155618 0.007)
(0.094 0.00241154 0.007)
(0.0868815 9.86059e-05 0.007)
(0.0868815 0.0359014 0.007)
(0.085 0.036 0.007)
(0.0983766 0.0300444 0.007)
(0.0983766 0.00595565 0.007)
(0.103 0.018 0.007)
(0.102901 0.0198815 0.007)
(0.102607 0.0217424 0.007)
(0.0712811 0.029653 0.007)
(0.0701016 0.00789863 0.007)
(0.0741069 0.00367032 0.002)
(0.0726214 0.00493208 0.002)
(0.102901 0.0161185 0.002)
(0.102607 0.0142576 0.002)
(0.085 0 0.002)
(0.0830539 0.000105517 0.002)
(0.0955801 0.0325623 0.002)
(0.0970443 0.0313766 0.002)
(0.0970443 0.00462339 0.002)
(0.0955801 0.00343769 0.002)
(0.0682784 0.0113375 0.002)
(0.0676561 0.0131845 0.002)
(0.0811305 0.0355792 0.002)
(0.0830539 0.0358945 0.002)
(0.0690968 0.00956865 0.002)
(0.0676561 0.0228155 0.002)
(0.0682784 0.0246625 0.002)
(0.0811305 0.00042083 0.002)
(0.0792526 0.000942243 0.002)
(0.0792526 0.0350578 0.002)
(0.0726214 0.0310679 0.002)
(0.0741069 0.0323297 0.002)
(0.0672371 0.0150879 0.002)
(0.0670264 0.0170255 0.002)
(0.077442 0.00166364 0.002)
(0.07572 0.00257657 0.002)
(0.0690968 0.0264314 0.002)
(0.0701016 0.0281014 0.002)
(0.0712811 0.00634705 0.002)
(0.0670264 0.0189745 0.002)
(0.0672371 0.0209121 0.002)
(0.07572 0.0334234 0.002)
(0.077442 0.0343364 0.002)
(0.100588 0.009 0.002)
(0.0995623 0.00741987 0.002)
(0.0995623 0.0285801 0.002)
(0.100588 0.027 0.002)
(0.0887424 0.0356067 0.002)
(0.0905623 0.035119 0.002)
(0.0905623 0.000880983 0.002)
(0.0887424 0.000393343 0.002)
(0.102607 0.0217424 0.002)
(0.102901 0.0198815 0.002)
(0.101444 0.0253213 0.002)
(0.102119 0.0235623 0.002)
(0.102119 0.0124377 0.002)
(0.101444 0.0106787 0.002)
(0.0923213 0.0344438 0.002)
(0.094 0.0335885 0.002)
(0.094 0.00241154 0.002)
(0.0923213 0.00155618 0.002)
(0.0868815 9.86059e-05 0.002)
(0.085 0.036 0.002)
(0.0868815 0.0359014 0.002)
(0.0983766 0.00595565 0.002)
(0.0983766 0.0300444 0.002)
(0.103 0.018 0.002)
(0.0712811 0.029653 0.002)
(0.0701016 0.00789863 0.002)
(0.102901 0.0161185 0.0065)
(0.103 0.018 0.0065)
(0.085 0 0.0065)
(0.0868815 9.86059e-05 0.0065)
(0.0887424 0.000393343 0.0065)
(0.0905623 0.000880983 0.0065)
(0.0923213 0.00155618 0.0065)
(0.094 0.00241154 0.0065)
(0.0955801 0.00343769 0.0065)
(0.0970443 0.00462339 0.0065)
(0.0983766 0.00595565 0.0065)
(0.0995623 0.00741987 0.0065)
(0.100588 0.009 0.0065)
(0.101444 0.0106787 0.0065)
(0.102119 0.0124377 0.0065)
(0.102607 0.0142576 0.0065)
(0.102901 0.0198815 0.0065)
(0.0868815 0.0359014 0.0065)
(0.085 0.036 0.0065)
(0.102607 0.0217424 0.0065)
(0.102119 0.0235623 0.0065)
(0.101444 0.0253213 0.0065)
(0.100588 0.027 0.0065)
(0.0995623 0.0285801 0.0065)
(0.0983766 0.0300444 0.0065)
(0.0970443 0.0313766 0.0065)
(0.0955801 0.0325623 0.0065)
(0.094 0.0335885 0.0065)
(0.0923213 0.0344438 0.0065)
(0.0905623 0.035119 0.0065)
(0.0887424 0.0356067 0.0065)
(0.0830539 0.000105517 0.0065)
(0.0830539 0.0358945 0.0065)
(0.0811305 0.0355792 0.0065)
(0.0792526 0.0350578 0.0065)
(0.077442 0.0343364 0.0065)
(0.07572 0.0334234 0.0065)
(0.0741069 0.0323297 0.0065)
(0.0726214 0.0310679 0.0065)
(0.0712811 0.029653 0.0065)
(0.0701016 0.0281014 0.0065)
(0.0690968 0.0264314 0.0065)
(0.0682784 0.0246625 0.0065)
(0.0676561 0.0228155 0.0065)
(0.0672371 0.0209121 0.0065)
(0.0670264 0.0189745 0.0065)
(0.0670264 0.0170255 0.0065)
(0.0672371 0.0150879 0.0065)
(0.0676561 0.0131845 0.0065)
(0.0682784 0.0113375 0.0065)
(0.0690968 0.00956865 0.0065)
(0.0701016 0.00789863 0.0065)
(0.0712811 0.00634705 0.0065)
(0.0726214 0.00493208 0.0065)
(0.0741069 0.00367032 0.0065)
(0.07572 0.00257657 0.0065)
(0.077442 0.00166364 0.0065)
(0.0792526 0.000942243 0.0065)
(0.0811305 0.00042083 0.0065)
(0.103 0.018 0.0025)
(0.102901 0.0161185 0.0025)
(0.0868815 9.86059e-05 0.0025)
(0.085 0 0.0025)
(0.0887424 0.000393343 0.0025)
(0.0905623 0.000880983 0.0025)
(0.0923213 0.00155618 0.0025)
(0.094 0.00241154 0.0025)
(0.0955801 0.00343769 0.0025)
(0.0970443 0.00462339 0.0025)
(0.0983766 0.00595565 0.0025)
(0.0995623 0.00741987 0.0025)
(0.100588 0.009 0.0025)
(0.101444 0.0106787 0.0025)
(0.102119 0.0124377 0.0025)
(0.102607 0.0142576 0.0025)
(0.102901 0.0198815 0.0025)
(0.085 0.036 0.0025)
(0.0868815 0.0359014 0.0025)
(0.102607 0.0217424 0.0025)
(0.102119 0.0235623 0.0025)
(0.101444 0.0253213 0.0025)
(0.100588 0.027 0.0025)
(0.0995623 0.0285801 0.0025)
(0.0983766 0.0300444 0.0025)
(0.0970443 0.0313766 0.0025)
(0.0955801 0.0325623 0.0025)
(0.094 0.0335885 0.0025)