/*--------------------------------*- C++ -*----------------------------------*\
| =========                 |                                                 |
| \\      /  F ield         | OpenFOAM: The Open Source CFD Toolbox           |
|  \\    /   O peration     | Version:  v1912                                 |
|   \\  /    A nd           | Website:  www.openfoam.com                      |
|    \\/     M anipulation  |                                                 |
\*---------------------------------------------------------------------------*/
FoamFile
{
    version     2.0;
    format      ascii;
    class       dictionary;
    object      blockMeshDict;
}
// * * * * * * * * * * * * * * * * * * * * * * * * * * * * * * * * * * * * * //

scale   1;

// Geometry parameters
// Base: 50mm x 50mm x 5mm
// Fin:  50mm x 10mm x 20mm (centered)

vertices
(
    // Base vertices (z=0)
    (0 0 0)                              // 0
    (0.05 0 0)                  // 1
    (0.05 0.05 0)       // 2
    (0 0.05 0)                   // 3

    // Base top / fin bottom (z=base_height)
    (0 0 0.005)                  // 4
    (0.05 0 0.005)      // 5
    (0.05 0.05 0.005)  // 6
    (0 0.05 0.005)       // 7

    // Fin top vertices (z=total_height)
    (0 0.02 0.025)                    // 8
    (0.05 0.02 0.025)        // 9
    (0.05 0.03 0.025)          // 10
    (0 0.03 0.025)                      // 11

    // Fin bottom corners at base_height (for hex block)
    (0 0.02 0.005)                     // 12
    (0.05 0.02 0.005)         // 13
    (0.05 0.03 0.005)           // 14
    (0 0.03 0.005)                       // 15
);

blocks
(
    // Base block
    hex (0 1 2 3 4 5 6 7) (30 30 5) simpleGrading (1 1 1)

    // Fin block
    hex (12 13 14 15 8 9 10 11) (30 5 15) simpleGrading (1 1 1)
);

edges
(
);

boundary
(
    bottom
    {
        type wall;
        faces
        (
            (0 3 2 1)
        );
    }

    top
    {
        type wall;
        faces
        (
            (8 9 10 11)
        );
    }

    sides
    {
        type wall;
        faces
        (
            // Base sides
            (0 1 5 4)
            (2 3 7 6)
            (0 4 7 3)
            (1 2 6 5)
            // Base top (excluding fin area) - simplified: include all
            (4 5 6 7)
            // Fin sides
            (12 8 11 15)
            (13 14 10 9)
            (12 13 9 8)
            (15 11 10 14)
        );
    }
);

mergePatchPairs
(
);

// ************************************************************************* //
