/*--------------------------------*- C++ -*----------------------------------*\
| =========                 |                                                 |
| \\      /  F ield         | OpenFOAM: The Open Source CFD Toolbox           |
|  \\    /   O peration     | Version:  v1912                                 |
|   \\  /    A nd           | Website:  www.openfoam.com                      |
|    \\/     M anipulation  |                                                 |
\*---------------------------------------------------------------------------*/
FoamFile
{
    version     2.0;
    format      ascii;
    class       dictionary;
    object      blockMeshDict;
}
// * * * * * * * * * * * * * * * * * * * * * * * * * * * * * * * * * * * * * //

scale   0.001;  // mm to m

// Simple 3D heatsink: 50mm x 50mm x 25mm

vertices
(
    (0  0  0)      // 0
    (50 0  0)      // 1
    (50 50 0)      // 2
    (0  50 0)      // 3
    (0  0  25)     // 4
    (50 0  25)     // 5
    (50 50 25)     // 6
    (0  50 25)     // 7
);

blocks
(
    hex (0 1 2 3 4 5 6 7) (25 25 15) simpleGrading (1 1 1)
);

edges
(
);

boundary
(
    bottom
    {
        type wall;
        faces
        (
            (0 3 2 1)
        );
    }

    top
    {
        type wall;
        faces
        (
            (4 5 6 7)
        );
    }

    front
    {
        type wall;
        faces
        (
            (0 1 5 4)
        );
    }

    back
    {
        type wall;
        faces
        (
            (2 3 7 6)
        );
    }

    left
    {
        type wall;
        faces
        (
            (0 4 7 3)
        );
    }

    right
    {
        type wall;
        faces
        (
            (1 2 6 5)
        );
    }
);

mergePatchPairs
(
);

// ************************************************************************* //
