FoamFile
{
    version     2.0;
    format      ascii;
    class       dictionary;
    location    "constant";
    object      regionProperties;
}

regions
(
    fluid (fluid)
    solid (domain0 domain1 domain2 domain3 domain4 domain6 domain7 domain8 solid)
);
